
     RDKit          3D

 35 37  0  0  0  0  0  0  0  0999 V2000
  -21.8340   -3.3610   30.3010 S   0  0  1  0  0  0  0  0  0  0  0  0
  -24.4200   -0.7700   35.7010 Br  0  0  0  0  0  0  0  0  0  0  0  0
  -23.6090   -1.5860   34.1800 C   0  0  0  0  0  0  0  0  0  0  0  0
  -22.9150   -4.6770   30.0170 N   0  0  0  0  0  0  0  0  0  0  0  0
  -20.4930   -3.9260   30.5110 O   0  0  0  0  0  0  0  0  0  0  0  0
  -23.2020   -2.9430   34.1820 C   0  0  0  0  0  0  0  0  0  0  0  0
  -25.4010   -6.2800   30.8670 N   0  0  0  0  0  0  0  0  0  0  0  0
  -22.0600   -2.3680   29.2410 O   0  0  0  0  0  0  0  0  0  0  0  0
  -22.5890   -3.5040   33.0230 C   0  0  0  0  0  0  0  0  0  0  0  0
  -22.4430   -2.7020   31.8620 C   0  0  0  0  0  0  0  0  0  0  0  0
  -22.8730   -1.3620   31.8700 C   0  0  0  0  0  0  0  0  0  0  0  0
  -23.4390   -0.8040   33.0260 C   0  0  0  0  0  0  0  0  0  0  0  0
  -22.1690   -4.8550   33.0530 C   0  0  0  0  0  0  0  0  0  0  0  0
  -22.4120   -5.6530   34.1790 C   0  0  0  0  0  0  0  0  0  0  0  0
  -23.0500   -5.1120   35.3020 C   0  0  0  0  0  0  0  0  0  0  0  0
  -23.4240   -3.7570   35.3140 C   0  0  0  0  0  0  0  0  0  0  0  0
  -24.3310   -4.3830   29.8130 C   0  0  2  0  0  0  0  0  0  0  0  0
  -25.2210   -4.9450   30.8950 C   0  0  0  0  0  0  0  0  0  0  0  0
  -26.2390   -6.8150   31.7740 C   0  0  0  0  0  0  0  0  0  0  0  0
  -26.9230   -6.0630   32.7470 C   0  0  0  0  0  0  0  0  0  0  0  0
  -26.7070   -4.6740   32.7880 C   0  0  0  0  0  0  0  0  0  0  0  0
  -25.8350   -4.1000   31.8430 C   0  0  0  0  0  0  0  0  0  0  0  0
  -22.7990   -5.3990   30.7290 H   0  0  0  0  0  0  0  0  0  0  0  0
  -22.7940   -0.7560   30.9840 H   0  0  0  0  0  0  0  0  0  0  0  0
  -23.7680    0.2230   33.0150 H   0  0  0  0  0  0  0  0  0  0  0  0
  -21.6710   -5.3220   32.2200 H   0  0  0  0  0  0  0  0  0  0  0  0
  -22.1150   -6.6890   34.1720 H   0  0  0  0  0  0  0  0  0  0  0  0
  -23.2550   -5.7440   36.1490 H   0  0  0  0  0  0  0  0  0  0  0  0
  -23.9060   -3.3680   36.1980 H   0  0  0  0  0  0  0  0  0  0  0  0
  -24.6370   -4.8230   28.8650 H   0  0  0  0  0  0  0  0  0  0  0  0
  -24.4870   -3.3060   29.7440 H   0  0  0  0  0  0  0  0  0  0  0  0
  -26.3420   -7.8830   31.7280 H   0  0  0  0  0  0  0  0  0  0  0  0
  -27.5920   -6.5460   33.4410 H   0  0  0  0  0  0  0  0  0  0  0  0
  -27.2050   -4.0630   33.5260 H   0  0  0  0  0  0  0  0  0  0  0  0
  -25.6490   -3.0380   31.8390 H   0  0  0  0  0  0  0  0  0  0  0  0
  1  4  1  6
  1  5  2  0
  1  8  2  0
  1 10  1  0
  2  3  1  0
  3  6  2  0
  3 12  1  0
  4 17  1  0
  4 23  1  0
  6  9  1  0
  6 16  1  0
  7 18  2  0
  7 19  1  0
  9 10  2  0
  9 13  1  0
 10 11  1  0
 11 12  2  0
 11 24  1  0
 12 25  1  0
 13 14  2  0
 13 26  1  0
 14 15  1  0
 14 27  1  0
 15 16  2  0
 15 28  1  0
 16 29  1  0
 17 18  1  0
 17 30  1  6
 17 31  1  0
 18 22  1  0
 19 20  2  0
 19 32  1  0
 20 21  1  0
 20 33  1  0
 21 22  2  0
 21 34  1  0
 22 35  1  0
M  END
$$$$
